*KEYWORD
*PARAMETER
R C       2.68        
R Bf      18.48     
R Bt      3.58      
R Bfs     1.627     
R t_act   .0718     
R t_end   .17       
R a_on    .018281732
R a_off   379.259774
R k_mlcp 
R k_force
R k1
R k3
R k40
R k41
R kD2_D1 
R x_ps    5.        
R Cp      .5        
R s_2     .25       
R s_3     .25       
R k_coop  
*TITLE
LS-DYNA keyword deck by LS-PRE
$
*CONTROL_OUTPUT
1,3,0,0,0.0
0
*CONTROL_TERMINATION
&t_end,,0.0,0.0,0.0
*CONTROL_TIMESTEP
0,,,,1e-6
*DATABASE_ELOUT
0.01,1
*DATABASE_GLSTAT
0.01
*DATABASE_MATSUM
0.01
*DATABASE_BINARY_D3PLOT
0.075
*DATABASE_BINARY_D3THDT
0.01
*DATABASE_ABSTAT
0.01,2
*DATABASE_EXTENT_BINARY
45,0,0,1
0,0,0,1
$ 
$ 
*MAT_ELASTIC
4,9.0e-10,0.010,0.3,,,
*HOURGLASS
4,6,0.0,0,0.0,0.0
*SECTION_SHELL
4,2,0.0,0.0,0.0,0.0,0
0.1,0.1,0.1,0.1,0.0,0.0
*PART
material type # 1 (Elastic)
4,4,4,0,4,0,0,0
$
*SET_SOLID_GENERAL
10
PART,1,2,3
*PART
endo
1,1,1
mid
2,2,2
epi
3,3,3
$
$==================================================
$endo-myocardium
*MAT_USER_DEFINED_MATERIAL_MODELS
$MID,RO,MT,LMC,NHV,IORTHO,BULK,IG
1,1.04e-03,45,33,36,1,20,19
$IVEC,IFAIL,ITHERM,IHYPER
0,0,0,1
 
 
$C,Bf,Bt,Bfs,lo,lr,t_act,rho_c
&C,&Bf,&Bt,&Bfs,1.20e-004,1.78e-004,&t_act,6.9e12
$k_b,T_k,a_on,a_off,Cp,lthin,lthick,lbare
1.381e-19,288,&a_on,&a_off,&Cp,1.12e-004,8.15e-005,8e-006
$l_falloff,K,P4(G),bp,Cka,f_p2,kd1,kdb1
1e+004,1e-003,1.0,1.0e+007,&Cka,2,&kd1,&kdb1
$kd2,kdb2,x_ps,kplus,kminus,s_2,s_3,Cka_2
&kd2,&kdb2,&x_ps,&kplus,&kminus,&s_2,&s_3,&Cka_2
$fCa
25
$==================================================
$mid-myocardium
*MAT_USER_DEFINED_MATERIAL_MODELS
$MID,RO,MT,LMC,NHV,IORTHO,BULK,IG
2,1.04e-03,45,33,36,1,20,19
$IVEC,IFAIL,ITHERM,IHYPER
0,0,0,1
 
 
$C,Bf,Bt,Bfs,lo,lr,t_act,rho_c
&C,&Bf,&Bt,&Bfs,1.20e-004,1.85e-004,&t_act,6.9e12
$k_b,T_k,a_on,a_off,Cp,lthin,lthick,lbare
1.381e-19,288,&a_on,&a_off,&Cp,1.12e-004,8.15e-005,8e-006
$l_falloff,K,P4(G),bp,Cka,f_p2,kd1,kdb1
1e+004,1e-003,1.0,1.0e+007,&Cka,2,&kd1,&kdb1
$kd2,kdb2,x_ps,kplus,kminus,s_2,s_3,Cka_2
&kd2,&kdb2,&x_ps,&kplus,&kminus,&s_2,&s_3,&Cka_2
$fCa
25
$==================================================
$
$epi-myocardium
*MAT_USER_DEFINED_MATERIAL_MODELS
$MID,RO,MT,LMC,NHV,IORTHO,BULK,IG
3,1.04e-03,45,33,36,1,20,19
$IVEC,IFAIL,ITHERM,IHYPER
0,0,0,1
 
 
$C,Bf,Bt,Bfs,lo,lr,t_act,rho_c
&C,&Bf,&Bt,&Bfs,1.20e-004,1.91e-004,&t_act,6.9e12
$k_b,T_k,a_on,a_off,Cp,lthin,lthick,lbare
1.381e-19,288,&a_on,&a_off,&Cp,1.12e-004,8.15e-005,8e-006
$l_falloff,K,P4(G),bp,Cka,f_p2,kd1,kdb1
1e+004,1e-003,1.0,1.0e+007,&Cka,2,&kd1,&kdb1
$kd2,kdb2,x_ps,kplus,kminus,s_2,s_3,Cka_2
&kd2,&kdb2,&x_ps,&kplus,&kminus,&s_2,&s_3,&Cka_2
$fCa
25
$==================================================
$==================================================
*HOURGLASS
1,1,0.1,0,1.5,0.1,0.1,0.1
*SECTION_SOLID
1,1
2,1
3,1
$
$
*SET_PART_LIST
33
4
*AIRBAG_LINEAR_FLUID
33,4,,,,,
2e7,1.06e-3,2,3,,0,0,0
$
$------load curve for mass inflow
*DEFINE_CURVE
2,0,1,1,0.0,0.0
0.000,0.000
0.0071,1.67337e-6
0.0141,2.60376e-3
0.0382,4.01322e-3
0.0718,0.0
&t_end,0.0
$------load curve for mass output
*DEFINE_CURVE
3,0,1,1,0.0,0.0
0.000,0.000
0.0718,0.000
0.0908,0.000
0.0950,0.0040
0.1,0.0048
0.105,0.0050
$0.108,0.0054
0.112,0.0052
0.113,0.0050
$0.114,0.0050
0.115,0.0046
$0.116,0.0048
0.117,0.0036
0.133,0.0010
0.138,0.0004
0.145,9.063e-5
0.15,0.000
&t_end,0.0
$
$
*DAMPING_GLOBAL
4
*DEFINE_CURVE
4,0,1,1,0.0,0.0
0.000,100.0
&t_end,100.0
$
$
$*BOUNDARY_SPC_SET
$1,0,0,0,1,1,1,1
$
$*BOUNDARY_SPC_SET
$2,0,1,0,0,1,1,1
$
$*BOUNDARY_SPC_SET
$3,0,0,1,0,1,1,1
$
$
$ Node set 1
$
$*SET_NODE_LIST
$1,0.,0.,0.,0.
$1,921,967,1013,1059,1105,1151,1197
$1243,1289,2,922,968,1014,1060,1106
$1152,1198,1244,1290,461,1335,1358,1381
$1404,1427,1450,1473,1496,1519,691,1542
$1565,1588,1611,1634,1657,1680,1703,1726
$3201,3203,3205,3207,3209,3211,3213,3215
$2467,3202,3204,3206,3208,3210,3212,3214
$3216,2468,3385,3386,3387,3388,3389,3390
$3391,3392,2666,3561,3562,3563,3564,3565
$3566,3567,3568,2864,19,2115,2159,2203
$2247,2291,2335,2379,2423,20,2116,2160
$2204,2248,2292,2336,2380,2424,470,2490
$2512,2534,2556,2578,2600,2622,2644,700
$2688,2710,2732,2754,2776,2798,2820,2842
$3,5,7,9,11,13,15,17
$4,6,8,10,12,14,16,18
$462,463,464,465,466,467,468,469
$692,693,694,695,696,697,698,699
$2,922,968,1014,1060,1106,3202,3204
$3206,3208,3210,3212,3214,20,2116,2160
$3566,3567,3568,2864
$921,967,1013,1059,1105,1151,1197,15
$
$ Node set 2 - x constraint
$
$*SET_NODE_LIST
$2,0.,0.,0.,0.
$2159,1243
$
$ Node set 3 - y constraint
$
$*SET_NODE_LIST
$3,0.,0.,0.,0.
$3,3213
*SET_NODE_LIST
1,0.,0.,0.,0.
1,2,461,691
*SET_NODE_LIST
2,0.,0.,0.,0.
3,4,462,692
*SET_NODE_LIST
3,0.,0.,0.,0.
5,6,463,693
*SET_NODE_LIST
4,0.,0.,0.,0.
7,8,464,694
*SET_NODE_LIST
5,0.,0.,0.,0.
9,10,465,695
*SET_NODE_LIST
6,0.,0.,0.,0.
11,12,466,696
*SET_NODE_LIST
7,0.,0.,0.,0.
13,14,467,697
*SET_NODE_LIST
8,0.,0.,0.,0.
15,16,468,698
*SET_NODE_LIST
9,0.,0.,0.,0.
17,18,469,699
*SET_NODE_LIST
10,0.,0.,0.,0.
19,20,470,700
*SET_NODE_LIST
11,0.,0.,0.,0.
2115,2116,2490,2688
*SET_NODE_LIST
12,0.,0.,0.,0.
2159,2160,2512,2710
*SET_NODE_LIST
13,0.,0.,0.,0.
2203,2204,2534,2732
*SET_NODE_LIST
14,0.,0.,0.,0.
2247,2248,2556,2754
*SET_NODE_LIST
15,0.,0.,0.,0.
2291,2292,2578,2776
*SET_NODE_LIST
16,0.,0.,0.,0.
2335,2336,2600,2798
*SET_NODE_LIST
17,0.,0.,0.,0.
2379,2380,2622,2820
*SET_NODE_LIST
18,0.,0.,0.,0.
2423,2424,2644,2842
*SET_NODE_LIST
19,0.,0.,0.,0.
2467,2468,2666,2864
*SET_NODE_LIST
20,0.,0.,0.,0.
3215,3216,3392,3568
*SET_NODE_LIST
21,0.,0.,0.,0.
3213,3214,3391,3567
*SET_NODE_LIST
22,0.,0.,0.,0.
3211,3212,3390,3566
*SET_NODE_LIST
23,0.,0.,0.,0.
3209,3210,3389,3565
*SET_NODE_LIST
24,0.,0.,0.,0.
3207,3208,3388,3564
*SET_NODE_LIST
25,0.,0.,0.,0.
3205,3206,3387,3563
*SET_NODE_LIST
26,0.,0.,0.,0.
3203,3204,3386,3562
*SET_NODE_LIST
27,0.,0.,0.,0.
3201,3202,3385,3561
*SET_NODE_LIST
28,0.,0.,0.,0.
1289,1290,1519,1726
*SET_NODE_LIST
29,0.,0.,0.,0.
1243,1244,1496,1703
*SET_NODE_LIST
30,0.,0.,0.,0.
1197,1198,1473,1680
*SET_NODE_LIST
31,0.,0.,0.,0.
1151,1152,1450,1657
*SET_NODE_LIST
32,0.,0.,0.,0.
1105,1106,1427,1634
*SET_NODE_LIST
33,0.,0.,0.,0.
1059,1060,1404,1611
*SET_NODE_LIST
34,0.,0.,0.,0.
1013,1014,1381,1588
*SET_NODE_LIST
35,0.,0.,0.,0.
967,968,1358,1565
*SET_NODE_LIST
36,0.,0.,0.,0.
921,922,1335,1542
$
*BOUNDARY_SPC_SET
1,1,0,1,1,1,1,1
*BOUNDARY_SPC_SET
2,2,0,1,1,1,1,1
*BOUNDARY_SPC_SET
3,3,0,1,1,1,1,1
*BOUNDARY_SPC_SET
4,4,0,1,1,1,1,1
*BOUNDARY_SPC_SET
5,5,0,1,1,1,1,1
*BOUNDARY_SPC_SET
6,6,0,1,1,1,1,1
*BOUNDARY_SPC_SET
7,7,0,1,1,1,1,1
*BOUNDARY_SPC_SET
8,8,0,1,1,1,1,1
*BOUNDARY_SPC_SET
9,9,0,1,1,1,1,1
*BOUNDARY_SPC_SET
10,10,0,1,1,1,1,1
*BOUNDARY_SPC_SET
11,11,0,1,1,1,1,1
*BOUNDARY_SPC_SET
12,12,0,1,1,1,1,1
*BOUNDARY_SPC_SET
13,13,0,1,1,1,1,1
*BOUNDARY_SPC_SET
14,14,0,1,1,1,1,1
*BOUNDARY_SPC_SET
15,15,0,1,1,1,1,1
*BOUNDARY_SPC_SET
16,16,0,1,1,1,1,1
*BOUNDARY_SPC_SET
17,17,0,1,1,1,1,1
*BOUNDARY_SPC_SET
18,18,0,1,1,1,1,1
*BOUNDARY_SPC_SET
19,19,0,1,1,1,1,1
*BOUNDARY_SPC_SET
20,20,0,1,1,1,1,1
*BOUNDARY_SPC_SET
21,21,0,1,1,1,1,1
*BOUNDARY_SPC_SET
22,22,0,1,1,1,1,1
*BOUNDARY_SPC_SET
23,23,0,1,1,1,1,1
*BOUNDARY_SPC_SET
24,24,0,1,1,1,1,1
*BOUNDARY_SPC_SET
25,25,0,1,1,1,1,1
*BOUNDARY_SPC_SET
26,26,0,1,1,1,1,1
*BOUNDARY_SPC_SET
27,27,0,1,1,1,1,1
*BOUNDARY_SPC_SET
28,28,0,1,1,1,1,1
*BOUNDARY_SPC_SET
29,29,0,1,1,1,1,1
*BOUNDARY_SPC_SET
30,30,0,1,1,1,1,1
*BOUNDARY_SPC_SET
31,31,0,1,1,1,1,1
*BOUNDARY_SPC_SET
32,32,0,1,1,1,1,1
*BOUNDARY_SPC_SET
33,33,0,1,1,1,1,1
*BOUNDARY_SPC_SET
34,34,0,1,1,1,1,1
*BOUNDARY_SPC_SET
35,35,0,1,1,1,1,1
*BOUNDARY_SPC_SET
36,36,0,1,1,1,1,1
$*SET_NODE_LIST
$4,0,0,0
$11,12,466,696
*DEFINE_COORDINATE_NODES
1,691,1,921,0,X
*DEFINE_COORDINATE_NODES
2,692,3,1,0,X
*DEFINE_COORDINATE_NODES
3,693,5,3,0,X
*DEFINE_COORDINATE_NODES
4,694,7,5,0,X
*DEFINE_COORDINATE_NODES
5,695,9,7,0,X
*DEFINE_COORDINATE_NODES
6,696,11,9,0,X
*DEFINE_COORDINATE_NODES
7,697,13,11,0,X
*DEFINE_COORDINATE_NODES
8,698,15,13,0,X
*DEFINE_COORDINATE_NODES
9,699,17,15,0,X
*DEFINE_COORDINATE_NODES
10,700,19,17,0,X
*DEFINE_COORDINATE_NODES
11,2688,2115,19,0,X
*DEFINE_COORDINATE_NODES
12,2710,2159,2115,0,X
*DEFINE_COORDINATE_NODES
13,2732,2203,2159,0,X
*DEFINE_COORDINATE_NODES
14,2754,2247,2203,0,X
*DEFINE_COORDINATE_NODES
15,2776,2291,2247,0,X
*DEFINE_COORDINATE_NODES
16,2798,2335,2291,0,X
*DEFINE_COORDINATE_NODES
17,2820,2379,2335,0,X
*DEFINE_COORDINATE_NODES
18,2842,2423,2379,0,X
*DEFINE_COORDINATE_NODES
19,2864,2467,2423,0,X
*DEFINE_COORDINATE_NODES
20,3568,3215,2467,0,X
*DEFINE_COORDINATE_NODES
21,3567,3213,3215,0,X
*DEFINE_COORDINATE_NODES
22,3566,3211,3213,0,X
*DEFINE_COORDINATE_NODES
23,3565,3209,3211,0,X
*DEFINE_COORDINATE_NODES
24,3564,3207,3209,0,X
*DEFINE_COORDINATE_NODES
25,3563,3205,3207,0,X
*DEFINE_COORDINATE_NODES
26,3562,3203,3205,0,X
*DEFINE_COORDINATE_NODES
27,3561,3201,3203,0,X
*DEFINE_COORDINATE_NODES
28,1726,1289,3201,0,X
*DEFINE_COORDINATE_NODES
29,1703,1243,1289,0,X
*DEFINE_COORDINATE_NODES
30,1680,1197,1243,0,X
*DEFINE_COORDINATE_NODES
31,1657,1151,1197,0,X
*DEFINE_COORDINATE_NODES
32,1634,1105,1151,0,X
*DEFINE_COORDINATE_NODES
33,1611,1059,1105,0,X
*DEFINE_COORDINATE_NODES
34,1588,1013,1059,0,X
*DEFINE_COORDINATE_NODES
35,1565,967,1013,0,X
*DEFINE_COORDINATE_NODES
36,1542,921,967,0,X
$
*NODE
1,2.119473,2.375857,-0.375918
2,2.185847,2.387491,-0.375959
3,2.111324,2.441070,-0.375955
4,2.179675,2.442418,-0.376005
5,2.114645,2.506705,-0.376172
6,2.182625,2.497491,-0.376070
7,2.125956,2.571444,-0.376148
8,2.193352,2.551461,-0.376069
9,2.145621,2.634152,-0.375916
10,2.211639,2.603022,-0.376014
11,2.176240,2.692303,-0.375918
12,2.237963,2.650666,-0.375997
13,2.216428,2.744303,-0.375948
14,2.271615,2.693348,-0.375996
15,2.264302,2.789326,-0.375917
16,2.311534,2.730227,-0.375992
17,2.319023,2.825723,-0.375918
18,2.356863,2.760267,-0.375994
19,2.379057,2.852463,-0.375943
20,2.406479,2.782820,-0.376008
$ ... 3548 like lines cut
$
*ELEMENT_SOLID_ORTHO
1,3,1,21,23,3,2,22,24,4
0.006461,-0.051057,-0.042632
0.009137,-0.024235,0.027618
2,3,21,41,43,23,22,42,44,24
0.007852,-0.051309,-0.043245
0.008255,-0.024260,0.027779
3,3,41,61,63,43,42,62,64,44
0.009221,-0.051319,-0.043622
0.007323,-0.024371,0.027838
4,3,61,81,83,63,62,82,84,64
0.010591,-0.051109,-0.043775
0.006275,-0.024411,0.027943
5,3,81,101,103,83,82,102,104,84
0.011250,-0.050843,-0.043694
0.005535,-0.024401,0.027978
6,3,101,121,123,103,102,122,124,104
0.011238,-0.050566,-0.043464
0.005194,-0.024486,0.027864
7,3,121,141,143,123,122,142,144,124
0.011059,-0.050219,-0.043146
$ ... 7837 like lines cut
$
*ELEMENT_SHELL_THICKNESS
1,4,691,701,702,692
0.0,0.0,0.0,0.0
2,4,692,702,703,693
0.0,0.0,0.0,0.0
3,4,693,703,704,694
0.0,0.0,0.0,0.0
4,4,694,704,705,695
0.0,0.0,0.0,0.0
5,4,695,705,706,696
0.0,0.0,0.0,0.0
6,4,696,706,707,697
0.0,0.0,0.0,0.0
7,4,697,707,708,698
0.0,0.0,0.0,0.0
8,4,698,708,709,699
0.0,0.0,0.0,0.0
9,4,699,709,710,700
0.0,0.0,0.0,0.0
10,4,701,711,712,702
0.0,0.0,0.0,0.0
$ ... 1726 like lines cut
$
*END

